powerfulcases/cases/matpower/case1197/case1197.raw
0, 100, 33, 0, 0, 60  / 28-Jan-2026 21:50:20 - MATPOWER 8.1


     1, 'BUS 1       ',       150, 3,    1,    1, 1,           1,           0, 1.05, 0.95, 1.05, 0.95
     2, 'BUS 2       ',        23, 1,    1,    1, 1,           1,           0, 1.05, 0.95, 1.05, 0.95
     3, 'BUS 3       ',        23, 1,    1,    1, 1,           1,           0, 1.05, 0.95, 1.05, 0.95
     4, 'BUS 4       ',        23, 1,    1,    1, 1,           1,           0, 1.05, 0.95, 1.05, 0.95
     5, 'BUS 5       ',        23, 1,    1,    1, 1,           1,           0, 1.05, 0.95, 1.05, 0.95
     6, 'BUS 6       ',        23, 1,    1,    1, 1,           1,           0, 1.05, 0.95, 1.05, 0.95
     7, 'BUS 7       ',        23, 1,    1,    1, 1,           1,           0, 1.05, 0.95, 1.05, 0.95
     8, 'BUS 8       ',        23, 1,    1,    1, 1,           1,           0, 1.05, 0.95, 1.05, 0.95
     9, 'BUS 9       ',        23, 1,    1,    1, 1,           1,           0, 1.05, 0.95, 1.05, 0.95
    10, 'BUS 10      ',        23, 1,    1,    1, 1,           1,           0, 1.05, 0.95, 1.05, 0.95
    11, 'BUS 11      ',        23, 1,    1,    1, 1,           1,           0, 1.05, 0.95, 1.05, 0.95
    12, 'BUS 12      ',        23, 1,    1,    1, 1,           1,           0, 1.05, 0.95, 1.05, 0.95
    13, 'BUS 13      ',        23, 1,    1,    1, 1,           1,           0, 1.05, 0.95, 1.05, 0.95
    14, 'BUS 14      ',        23, 1,    1,    1, 1,           1,           0, 1.05, 0.95, 1.05, 0.95
    15, 'BUS 15      ',        23, 1,    1,    1, 1,           1,           0, 1.05, 0.95, 1.05, 0.95
    16, 'BUS 16      ',        23, 1,    1,    1, 1,           1,           0, 1.05, 0.95, 1.05, 0.95
    17, 'BUS 17      ',        23, 1,    1,    1, 1,           1,           0, 1.05, 0.95, 1.05, 0.95
    18, 'BUS 18      ',        23, 1,    1,    1, 1,           1,           0, 1.05, 0.95, 1.05, 0.95
    19, 'BUS 19      ',        23, 1,    1,    1, 1,           1,           0, 1.05, 0.95, 1.05, 0.95
    20, 'BUS 20      ',        23, 1,    1,    1, 1,           1,           0, 1.05, 0.95, 1.05, 0.95
    21, 'BUS 21      ',        23, 1,    1,    1, 1,           1,           0, 1.05, 0.95, 1.05, 0.95
    22, 'BUS 22      ',        23, 1,    1,    1, 1,           1,           0, 1.05, 0.95, 1.05, 0.95
    23, 'BUS 23      ',        23, 1,    1,    1, 1,           1,           0, 1.05, 0.95, 1.05, 0.95
    24, 'BUS 24      ',        23, 1,    1,    1, 1,           1,           0, 1.05, 0.95, 1.05, 0.95
    25, 'BUS 25      ',        23, 1,    1,    1, 1,           1,           0, 1.05, 0.95, 1.05, 0.95
    26, 'BUS 26      ',        23, 1,    1,    1, 1,           1,           0, 1.05, 0.95, 1.05, 0.95
    27, 'BUS 27      ',        23, 1,    1,    1, 1,           1,           0, 1.05, 0.95, 1.05, 0.95
    28, 'BUS 28      ',        23, 1,    1,    1, 1,           1,           0, 1.05, 0.95, 1.05, 0.95
    29, 'BUS 29      ',        23, 1,    1,    1, 1,           1,           0, 1.05, 0.95, 1.05, 0.95
    30, 'BUS 30      ',        23, 1,    1,    1, 1,           1,           0, 1.05, 0.95, 1.05, 0.95
    31, 'BUS 31      ',        23, 1,    1,    1, 1,           1,           0, 1.05, 0.95, 1.05, 0.95
    32, 'BUS 32      ',     0.415, 1,    1,    1, 1,           1,           0, 1.05, 0.95, 1.05, 0.95
    33, 'BUS 33      ',     0.415, 1,    1,    1, 1,           1,           0, 1.05, 0.95, 1.05, 0.95
    34, 'BUS 34      ',     0.415, 1,    1,    1, 1,           1,           0, 1.05, 0.95, 1.05, 0.95
    35, 'BUS 35      ',     0.415, 1,    1,    1, 1,           1,           0, 1.05, 0.95, 1.05, 0.95
    36, 'BUS 36      ',     0.415, 1,    1,    1, 1,           1,           0, 1.05, 0.95, 1.05, 0.95
    37, 'BUS 37      ',     0.415, 1,    1,    1, 1,           1,           0, 1.05, 0.95, 1.05, 0.95
    38, 'BUS 38      ',     0.415, 1,    1,    1, 1,           1,           0, 1.05, 0.95, 1.05, 0.95
    39, 'BUS 39      ',     0.415, 1,    1,    1, 1,           1,           0, 1.05, 0.95, 1.05, 0.95
    40, 'BUS 40      ',     0.415, 1,    1,    1, 1,           1,           0, 1.05, 0.95, 1.05, 0.95
    41, 'BUS 41      ',     0.415, 1,    1,    1, 1,           1,           0, 1.05, 0.95, 1.05, 0.95
    42, 'BUS 42      ',     0.415, 1,    1,    1, 1,           1,           0, 1.05, 0.95, 1.05, 0.95
    43, 'BUS 43      ',     0.415, 1,    1,    1, 1,           1,           0, 1.05, 0.95, 1.05, 0.95
    44, 'BUS 44      ',     0.415, 1,    1,    1, 1,           1,           0, 1.05, 0.95, 1.05, 0.95
    45, 'BUS 45      ',     0.415, 1,    1,    1, 1,           1,           0, 1.05, 0.95, 1.05, 0.95
    46, 'BUS 46      ',     0.415, 1,    1,    1, 1,           1,           0, 1.05, 0.95, 1.05, 0.95
    47, 'BUS 47      ',     0.415, 1,    1,    1, 1,           1,           0, 1.05, 0.95, 1.05, 0.95
    48, 'BUS 48      ',     0.415, 1,    1,    1, 1,           1,           0, 1.05, 0.95, 1.05, 0.95
    49, 'BUS 49      ',     0.415, 1,    1,    1, 1,           1,           0, 1.05, 0.95, 1.05, 0.95
    50, 'BUS 50      ',     0.415, 1,    1,    1, 1,           1,           0, 1.05, 0.95, 1.05, 0.95
    51, 'BUS 51      ',     0.415, 1,    1,    1, 1,           1,           0, 1.05, 0.95, 1.05, 0.95
    52, 'BUS 52      ',     0.415, 1,    1,    1, 1,           1,           0, 1.05, 0.95, 1.05, 0.95
    53, 'BUS 53      ',     0.415, 1,    1,    1, 1,           1,           0, 1.05, 0.95, 1.05, 0.95
    54, 'BUS 54      ',     0.415, 1,    1,    1, 1,           1,           0, 1.05, 0.95, 1.05, 0.95
    55, 'BUS 55      ',     0.415, 1,    1,    1, 1,           1,           0, 1.05, 0.95, 1.05, 0.95
    56, 'BUS 56      ',     0.415, 1,    1,    1, 1,           1,           0, 1.05, 0.95, 1.05, 0.95
    57, 'BUS 57      ',     0.415, 1,    1,    1, 1,           1,           0, 1.05, 0.95, 1.05, 0.95
    58, 'BUS 58      ',     0.415, 1,    1,    1, 1,           1,           0, 1.05, 0.95, 1.05, 0.95
    59, 'BUS 59      ',     0.415, 1,    1,    1, 1,           1,           0, 1.05, 0.95, 1.05, 0.95
    60, 'BUS 60      ',     0.415, 1,    1,    1, 1,           1,           0, 1.05, 0.95, 1.05, 0.95
    61, 'BUS 61      ',     0.415, 1,    1,    1, 1,           1,           0, 1.05, 0.95, 1.05, 0.95
    62, 'BUS 62      ',     0.415, 1,    1,    1, 1,           1,           0, 1.05, 0.95, 1.05, 0.95
    63, 'BUS 63      ',     0.415, 1,    1,    1, 1,           1,           0, 1.05, 0.95, 1.05, 0.95
    64, 'BUS 64      ',     0.415, 1,    1,    1, 1,           1,           0, 1.05, 0.95, 1.05, 0.95
    65, 'BUS 65      ',     0.415, 1,    1,    1, 1,           1,           0, 1.05, 0.95, 1.05, 0.95
    66, 'BUS 66      ',     0.415, 1,    1,    1, 1,           1,           0, 1.05, 0.95, 1.05, 0.95
    67, 'BUS 67      ',     0.415, 1,    1,    1, 1,           1,           0, 1.05, 0.95, 1.05, 0.95
    68, 'BUS 68      ',     0.415, 1,    1,    1, 1,           1,           0, 1.05, 0.95, 1.05, 0.95
    69, 'BUS 69      ',     0.415, 1,    1,    1, 1,           1,           0, 1.05, 0.95, 1.05, 0.95
    70, 'BUS 70      ',     0.415, 1,    1,    1, 1,           1,           0, 1.05, 0.95, 1.05, 0.95
    71, 'BUS 71      ',     0.415, 1,    1,    1, 1,           1,           0, 1.05, 0.95, 1.05, 0.95
    72, 'BUS 72      ',     0.415, 1,    1,    1, 1,           1,           0, 1.05, 0.95, 1.05, 0.95
    73, 'BUS 73      ',     0.415, 1,    1,    1, 1,           1,           0, 1.05, 0.95, 1.05, 0.95
    74, 'BUS 74      ',     0.415, 1,    1,    1, 1,           1,           0, 1.05, 0.95, 1.05, 0.95
    75, 'BUS 75      ',     0.415, 1,    1,    1, 1,           1,           0, 1.05, 0.95, 1.05, 0.95
    76, 'BUS 76      ',     0.415, 1,    1,    1, 1,           1,           0, 1.05, 0.95, 1.05, 0.95
    77, 'BUS 77      ',     0.415, 1,    1,    1, 1,           1,           0, 1.05, 0.95, 1.05, 0.95
    78, 'BUS 78      ',     0.415, 1,    1,    1, 1,           1,           0, 1.05, 0.95, 1.05, 0.95
    79, 'BUS 79      ',     0.415, 1,    1,    1, 1,           1,           0, 1.05, 0.95, 1.05, 0.95
    80, 'BUS 80      ',     0.415, 1,    1,    1, 1,           1,           0, 1.05, 0.95, 1.05, 0.95
    81, 'BUS 81      ',     0.415, 1,    1,    1, 1,           1,           0, 1.05, 0.95, 1.05, 0.95
    82, 'BUS 82      ',     0.415, 1,    1,    1, 1,           1,           0, 1.05, 0.95, 1.05, 0.95
    83, 'BUS 83      ',     0.415, 1,    1,    1, 1,           1,           0, 1.05, 0.95, 1.05, 0.95
    84, 'BUS 84      ',     0.415, 1,    1,    1, 1,           1,           0, 1.05, 0.95, 1.05, 0.95
    85, 'BUS 85      ',     0.415, 1,    1,    1, 1,           1,           0, 1.05, 0.95, 1.05, 0.95
    86, 'BUS 86      ',     0.415, 1,    1,    1, 1,           1,           0, 1.05, 0.95, 1.05, 0.95
    87, 'BUS 87      ',     0.415, 1,    1,    1, 1,           1,           0, 1.05, 0.95, 1.05, 0.95
    88, 'BUS 88      ',     0.415, 1,    1,    1, 1,           1,           0, 1.05, 0.95, 1.05, 0.95
    89, 'BUS 89      ',     0.415, 1,    1,    1, 1,           1,           0, 1.05, 0.95, 1.05, 0.95
    90, 'BUS 90      ',     0.415, 1,    1,    1, 1,           1,           0, 1.05, 0.95, 1.05, 0.95
    91, 'BUS 91      ',     0.415, 1,    1,    1, 1,           1,           0, 1.05, 0.95, 1.05, 0.95
    92, 'BUS 92      ',     0.415, 1,    1,    1, 1,           1,           0, 1.05, 0.95, 1.05, 0.95
    93, 'BUS 93      ',     0.415, 1,    1,    1, 1,           1,           0, 1.05, 0.95, 1.05, 0.95
    94, 'BUS 94      ',     0.415, 1,    1,    1, 1,           1,           0, 1.05, 0.95, 1.05, 0.95
    95, 'BUS 95      ',     0.415, 1,    1,    1, 1,           1,           0, 1.05, 0.95, 1.05, 0.95
    96, 'BUS 96      ',     0.415, 1,    1,    1, 1,           1,           0, 1.05, 0.95, 1.05, 0.95
    97, 'BUS 97      ',     0.415, 1,    1,    1, 1,           1,           0, 1.05, 0.95, 1.05, 0.95
    98, 'BUS 98      ',     0.415, 1,    1,    1, 1,           1,           0, 1.05, 0.95, 1.05, 0.95
    99, 'BUS 99      ',     0.415, 1,    1,    1, 1,           1,           0, 1.05, 0.95, 1.05, 0.95
   100, 'BUS 100     ',     0.415, 1,    1,    1, 1,           1,           0, 1.05, 0.95, 1.05, 0.95
   101, 'BUS 101     ',     0.415, 1,    1,    1, 1,           1,           0, 1.05, 0.95, 1.05, 0.95
   102, 'BUS 102     ',     0.415, 1,    1,    1, 1,           1,           0, 1.05, 0.95, 1.05, 0.95
   103, 'BUS 103     ',     0.415, 1,    1,    1, 1,           1,           0, 1.05, 0.95, 1.05, 0.95
   104, 'BUS 104     ',     0.415, 1,    1,    1, 1,           1,           0, 1.05, 0.95, 1.05, 0.95
   105, 'BUS 105     ',     0.415, 1,    1,    1, 1,           1,           0, 1.05, 0.95, 1.05, 0.95
   106, 'BUS 106     ',     0.415, 1,    1,    1, 1,           1,           0, 1.05, 0.95, 1.05, 0.95
   107, 'BUS 107     ',     0.415, 1,    1,    1, 1,           1,           0, 1.05, 0.95, 1.05, 0.95
   108, 'BUS 108     ',     0.415, 1,    1,    1, 1,           1,           0, 1.05, 0.95, 1.05, 0.95
   109, 'BUS 109     ',     0.415, 1,    1,    1, 1,           1,           0, 1.05, 0.95, 1.05, 0.95
   110, 'BUS 110     ',     0.415, 1,    1,    1, 1,           1,           0, 1.05, 0.95, 1.05, 0.95
   111, 'BUS 111     ',     0.415, 1,    1,    1, 1,           1,           0, 1.05, 0.95, 1.05, 0.95
   112, 'BUS 112     ',     0.415, 1,    1,    1, 1,           1,           0, 1.05, 0.95, 1.05, 0.95
   113, 'BUS 113     ',     0.415, 1,    1,    1, 1,           1,           0, 1.05, 0.95, 1.05, 0.95
   114, 'BUS 114     ',     0.415, 1,    1,    1, 1,           1,           0, 1.05, 0.95, 1.05, 0.95
   115, 'BUS 115     ',     0.415, 1,    1,    1, 1,           1,           0, 1.05, 0.95, 1.05, 0.95
   116, 'BUS 116     ',     0.415, 1,    1,    1, 1,           1,           0, 1.05, 0.95, 1.05, 0.95
   117, 'BUS 117     ',     0.415, 1,    1,    1, 1,           1,           0, 1.05, 0.95, 1.05, 0.95
   118, 'BUS 118     ',     0.415, 1,    1,    1, 1,           1,           0, 1.05, 0.95, 1.05, 0.95
   119, 'BUS 119     ',     0.415, 1,    1,    1, 1,           1,           0, 1.05, 0.95, 1.05, 0.95
   120, 'BUS 120     ',     0.415, 1,    1,    1, 1,           1,           0, 1.05, 0.95, 1.05, 0.95
   121, 'BUS 121     ',     0.415, 1,    1,    1, 1,           1,           0, 1.05, 0.95, 1.05, 0.95
   122, 'BUS 122     ',     0.415, 1,    1,    1, 1,           1,           0, 1.05, 0.95, 1.05, 0.95
   123, 'BUS 123     ',     0.415, 1,    1,    1, 1,           1,           0, 1.05, 0.95, 1.05, 0.95
   124, 'BUS 124     ',     0.415, 1,    1,    1, 1,           1,           0, 1.05, 0.95, 1.05, 0.95
   125, 'BUS 125     ',     0.415, 1,    1,    1, 1,           1,           0, 1.05, 0.95, 1.05, 0.95
   126, 'BUS 126     ',     0.415, 1,    1,    1, 1,           1,           0, 1.05, 0.95, 1.05, 0.95
   127, 'BUS 127     ',     0.415, 1,    1,    1, 1,           1,           0, 1.05, 0.95, 1.05, 0.95
   128, 'BUS 128     ',     0.415, 1,    1,    1, 1,           1,           0, 1.05, 0.95, 1.05, 0.95
   129, 'BUS 129     ',     0.415, 1,    1,    1, 1,           1,           0, 1.05, 0.95, 1.05, 0.95
   130, 'BUS 130     ',     0.415, 1,    1,    1, 1,           1,           0, 1.05, 0.95, 1.05, 0.95
   131, 'BUS 131     ',     0.415, 1,    1,    1, 1,           1,           0, 1.05, 0.95, 1.05, 0.95
   132, 'BUS 132     ',     0.415, 1,    1,    1, 1,           1,           0, 1.05, 0.95, 1.05, 0.95
   133, 'BUS 133     ',     0.415, 1,    1,    1, 1,           1,           0, 1.05, 0.95, 1.05, 0.95
   134, 'BUS 134     ',     0.415, 1,    1,    1, 1,           1,           0, 1.05, 0.95, 1.05, 0.95
   135, 'BUS 135     ',     0.415, 1,    1,    1, 1,           1,           0, 1.05, 0.95, 1.05, 0.95
   136, 'BUS 136     ',     0.415, 1,    1,    1, 1,           1,           0, 1.05, 0.95, 1.05, 0.95
   137, 'BUS 137     ',     0.415, 1,    1,    1, 1,           1,           0, 1.05, 0.95, 1.05, 0.95
   138, 'BUS 138     ',     0.415, 1,    1,    1, 1,           1,           0, 1.05, 0.95, 1.05, 0.95
   139, 'BUS 139     ',     0.415, 1,    1,    1, 1,           1,           0, 1.05, 0.95, 1.05, 0.95
   140, 'BUS 140     ',     0.415, 1,    1,    1, 1,           1,           0, 1.05, 0.95, 1.05, 0.95
   141, 'BUS 141     ',     0.415, 1,    1,    1, 1,           1,           0, 1.05, 0.95, 1.05, 0.95
   142, 'BUS 142     ',     0.415, 1,    1,    1, 1,           1,           0, 1.05, 0.95, 1.05, 0.95
   143, 'BUS 143     ',     0.415, 1,    1,    1, 1,           1,           0, 1.05, 0.95, 1.05, 0.95
   144, 'BUS 144     ',     0.415, 1,    1,    1, 1,           1,           0, 1.05, 0.95, 1.05, 0.95
   145, 'BUS 145     ',     0.415, 1,    1,    1, 1,           1,           0, 1.05, 0.95, 1.05, 0.95
   146, 'BUS 146     ',     0.415, 1,    1,    1, 1,           1,           0, 1.05, 0.95, 1.05, 0.95
   147, 'BUS 147     ',     0.415, 1,    1,    1, 1,           1,           0, 1.05, 0.95, 1.05, 0.95
   148, 'BUS 148     ',     0.415, 1,    1,    1, 1,           1,           0, 1.05, 0.95, 1.05, 0.95
   149, 'BUS 149     ',     0.415, 1,    1,    1, 1,           1,           0, 1.05, 0.95, 1.05, 0.95
   150, 'BUS 150     ',     0.415, 1,    1,    1, 1,           1,           0, 1.05, 0.95, 1.05, 0.95
   151, 'BUS 151     ',     0.415, 1,    1,    1, 1,           1,           0, 1.05, 0.95, 1.05, 0.95
   152, 'BUS 152     ',     0.415, 1,    1,    1, 1,           1,           0, 1.05, 0.95, 1.05, 0.95
   153, 'BUS 153     ',     0.415, 1,    1,    1, 1,           1,           0, 1.05, 0.95, 1.05, 0.95
   154, 'BUS 154     ',     0.415, 1,    1,    1, 1,           1,           0, 1.05, 0.95, 1.05, 0.95
   155, 'BUS 155     ',     0.415, 1,    1,    1, 1,           1,           0, 1.05, 0.95, 1.05, 0.95
   156, 'BUS 156     ',     0.415, 1,    1,    1, 1,           1,           0, 1.05, 0.95, 1.05, 0.95
   157, 'BUS 157     ',     0.415, 1,    1,    1, 1,           1,           0, 1.05, 0.95, 1.05, 0.95
   158, 'BUS 158     ',     0.415, 1,    1,    1, 1,           1,           0, 1.05, 0.95, 1.05, 0.95
   159, 'BUS 159     ',     0.415, 1,    1,    1, 1,           1,           0, 1.05, 0.95, 1.05, 0.95
   160, 'BUS 160     ',     0.415, 1,    1,    1, 1,           1,           0, 1.05, 0.95, 1.05, 0.95
   161, 'BUS 161     ',     0.415, 1,    1,    1, 1,           1,           0, 1.05, 0.95, 1.05, 0.95
   162, 'BUS 162     ',     0.415, 1,    1,    1, 1,           1,           0, 1.05, 0.95, 1.05, 0.95
   163, 'BUS 163     ',     0.415, 1,    1,    1, 1,           1,           0, 1.05, 0.95, 1.05, 0.95
   164, 'BUS 164     ',     0.415, 1,    1,    1, 1,           1,           0, 1.05, 0.95, 1.05, 0.95
   165, 'BUS 165     ',     0.415, 1,    1,    1, 1,           1,           0, 1.05, 0.95, 1.05, 0.95
   166, 'BUS 166     ',     0.415, 1,    1,    1, 1,           1,           0, 1.05, 0.95, 1.05, 0.95
   167, 'BUS 167     ',     0.415, 1,    1,    1, 1,           1,           0, 1.05, 0.95, 1.05, 0.95
   168, 'BUS 168     ',     0.415, 1,    1,    1, 1,           1,           0, 1.05, 0.95, 1.05, 0.95
   169, 'BUS 169     ',     0.415, 1,    1,    1, 1,           1,           0, 1.05, 0.95, 1.05, 0.95
   170, 'BUS 170     ',     0.415, 1,    1,    1, 1,           1,           0, 1.05, 0.95, 1.05, 0.95
   171, 'BUS 171     ',     0.415, 1,    1,    1, 1,           1,           0, 1.05, 0.95, 1.05, 0.95
   172, 'BUS 172     ',     0.415, 1,    1,    1, 1,           1,           0, 1.05, 0.95, 1.05, 0.95
   173, 'BUS 173     ',     0.415, 1,    1,    1, 1,           1,           0, 1.05, 0.95, 1.05, 0.95
   174, 'BUS 174     ',     0.415, 1,    1,    1, 1,           1,           0, 1.05, 0.95, 1.05, 0.95
   175, 'BUS 175     ',     0.415, 1,    1,    1, 1,           1,           0, 1.05, 0.95, 1.05, 0.95
   176, 'BUS 176     ',     0.415, 1,    1,    1, 1,           1,           0, 1.05, 0.95, 1.05, 0.95
   177, 'BUS 177     ',     0.415, 1,    1,    1, 1,           1,           0, 1.05, 0.95, 1.05, 0.95
   178, 'BUS 178     ',     0.415, 1,    1,    1, 1,           1,           0, 1.05, 0.95, 1.05, 0.95
   179, 'BUS 179     ',     0.415, 1,    1,    1, 1,           1,           0, 1.05, 0.95, 1.05, 0.95
   180, 'BUS 180     ',     0.415, 1,    1,    1, 1,           1,           0, 1.05, 0.95, 1.05, 0.95
   181, 'BUS 181     ',     0.415, 1,    1,    1, 1,           1,           0, 1.05, 0.95, 1.05, 0.95
   182, 'BUS 182     ',     0.415, 1,    1,    1, 1,           1,           0, 1.05, 0.95, 1.05, 0.95
   183, 'BUS 183     ',     0.415, 1,    1,    1, 1,           1,           0, 1.05, 0.95, 1.05, 0.95
   184, 'BUS 184     ',     0.415, 1,    1,    1, 1,           1,           0, 1.05, 0.95, 1.05, 0.95
   185, 'BUS 185     ',     0.415, 1,    1,    1, 1,           1,           0, 1.05, 0.95, 1.05, 0.95
   186, 'BUS 186     ',     0.415, 1,    1,    1, 1,           1,           0, 1.05, 0.95, 1.05, 0.95
   187, 'BUS 187     ',     0.415, 1,    1,    1, 1,           1,           0, 1.05, 0.95, 1.05, 0.95
   188, 'BUS 188     ',     0.415, 1,    1,    1, 1,           1,           0, 1.05, 0.95, 1.05, 0.95
   189, 'BUS 189     ',     0.415, 1,    1,    1, 1,           1,           0, 1.05, 0.95, 1.05, 0.95
   190, 'BUS 190     ',     0.415, 1,    1,    1, 1,           1,           0, 1.05, 0.95, 1.05, 0.95
   191, 'BUS 191     ',     0.415, 1,    1,    1, 1,           1,           0, 1.05, 0.95, 1.05, 0.95
   192, 'BUS 192     ',     0.415, 1,    1,    1, 1,           1,           0, 1.05, 0.95, 1.05, 0.95
   193, 'BUS 193     ',     0.415, 1,    1,    1, 1,           1,           0, 1.05, 0.95, 1.05, 0.95
   194, 'BUS 194     ',     0.415, 1,    1,    1, 1,           1,           0, 1.05, 0.95, 1.05, 0.95
   195, 'BUS 195     ',     0.415, 1,    1,    1, 1,           1,           0, 1.05, 0.95, 1.05, 0.95
   196, 'BUS 196     ',     0.415, 1,    1,    1, 1,           1,           0, 1.05, 0.95, 1.05, 0.95
   197, 'BUS 197     ',     0.415, 1,    1,    1, 1,           1,           0, 1.05, 0.95, 1.05, 0.95
   198, 'BUS 198     ',     0.415, 1,    1,    1, 1,           1,           0, 1.05, 0.95, 1.05, 0.95
   199, 'BUS 199     ',     0.415, 1,    1,    1, 1,           1,           0, 1.05, 0.95, 1.05, 0.95
   200, 'BUS 200     ',     0.415, 1,    1,    1, 1,           1,           0, 1.05, 0.95, 1.05, 0.95
...
0 / END OF BUS DATA, BEGIN LOAD DATA
    32,  1, 1,    1,    1,    0.0015, 0.0004930262, 0, 0, 0, 0, 1, 1, 0
    33,  1, 1,    1,    1,    0.0015, 0.0004930262, 0, 0, 0, 0, 1, 1, 0
    34,  1, 1,    1,    1,    0.0015, 0.0004930262, 0, 0, 0, 0, 1, 1, 0
    35,  1, 1,    1,    1,    0.0015, 0.0004930262, 0, 0, 0, 0, 1, 1, 0
    36,  1, 1,    1,    1,    0.0015, 0.0004930262, 0, 0, 0, 0, 1, 1, 0
    37,  1, 1,    1,    1,    0.0015, 0.0004930262, 0, 0, 0, 0, 1, 1, 0
    38,  1, 1,    1,    1,    0.0015, 0.0004930262, 0, 0, 0, 0, 1, 1, 0
    39,  1, 1,    1,    1,    0.0015, 0.0004930262, 0, 0, 0, 0, 1, 1, 0
    40,  1, 1,    1,    1,    0.0015, 0.0004930262, 0, 0, 0, 0, 1, 1, 0
    41,  1, 1,    1,    1,    0.0015, 0.0004930262, 0, 0, 0, 0, 1, 1, 0
    42,  1, 1,    1,    1,    0.0015, 0.0004930262, 0, 0, 0, 0, 1, 1, 0
    43,  1, 1,    1,    1,    0.0015, 0.0004930262, 0, 0, 0, 0, 1, 1, 0
    44,  1, 1,    1,    1,    0.0015, 0.0004930262, 0, 0, 0, 0, 1, 1, 0
    45,  1, 1,    1,    1,    0.0015, 0.0004930262, 0, 0, 0, 0, 1, 1, 0
    46,  1, 1,    1,    1,    0.0015, 0.0004930262, 0, 0, 0, 0, 1, 1, 0
    47,  1, 1,    1,    1,    0.0015, 0.0004930262, 0, 0, 0, 0, 1, 1, 0
    48,  1, 1,    1,    1,    0.0015, 0.0004930262, 0, 0, 0, 0, 1, 1, 0
    49,  1, 1,    1,    1,    0.0015, 0.0004930262, 0, 0, 0, 0, 1, 1, 0
    50,  1, 1,    1,    1,    0.0015, 0.0004930262, 0, 0, 0, 0, 1, 1, 0
    51,  1, 1,    1,    1,    0.0015, 0.0004930262, 0, 0, 0, 0, 1, 1, 0
    52,  1, 1,    1,    1,    0.0015, 0.0004930262, 0, 0, 0, 0, 1, 1, 0
    53,  1, 1,    1,    1,    0.0015, 0.0004930262, 0, 0, 0, 0, 1, 1, 0
    54,  1, 1,    1,    1,    0.0015, 0.0004930262, 0, 0, 0, 0, 1, 1, 0
    55,  1, 1,    1,    1,    0.0015, 0.0004930262, 0, 0, 0, 0, 1, 1, 0
    56,  1, 1,    1,    1,    0.0015, 0.0004930262, 0, 0, 0, 0, 1, 1, 0
    57,  1, 1,    1,    1,    0.0015, 0.0004930262, 0, 0, 0, 0, 1, 1, 0
    58,  1, 1,    1,    1,    0.0015, 0.0004930262, 0, 0, 0, 0, 1, 1, 0
    59,  1, 1,    1,    1,    0.0015, 0.0004930262, 0, 0, 0, 0, 1, 1, 0
    60,  1, 1,    1,    1,    0.0015, 0.0004930262, 0, 0, 0, 0, 1, 1, 0
    61,  1, 1,    1,    1,    0.0015, 0.0004930262, 0, 0, 0, 0, 1, 1, 0
    62,  1, 1,    1,    1,    0.0015, 0.0004930262, 0, 0, 0, 0, 1, 1, 0
    63,  1, 1,    1,    1,    0.0015, 0.0004930262, 0, 0, 0, 0, 1, 1, 0
    64,  1, 1,    1,    1,    0.0015, 0.0004930262, 0, 0, 0, 0, 1, 1, 0
    65,  1, 1,    1,    1,    0.0015, 0.0004930262, 0, 0, 0, 0, 1, 1, 0
    66,  1, 1,    1,    1,    0.0015, 0.0004930262, 0, 0, 0, 0, 1, 1, 0
    67,  1, 1,    1,    1,    0.0015, 0.0004930262, 0, 0, 0, 0, 1, 1, 0
    68,  1, 1,    1,    1,    0.0015, 0.0004930262, 0, 0, 0, 0, 1, 1, 0
    69,  1, 1,    1,    1,    0.0015, 0.0004930262, 0, 0, 0, 0, 1, 1, 0
    70,  1, 1,    1,    1,    0.0015, 0.0004930262, 0, 0, 0, 0, 1, 1, 0
    71,  1, 1,    1,    1,    0.0015, 0.0004930262, 0, 0, 0, 0, 1, 1, 0
    72,  1, 1,    1,    1,    0.0015, 0.0004930262, 0, 0, 0, 0, 1, 1, 0
    73,  1, 1,    1,    1,    0.0015, 0.0004930262, 0, 0, 0, 0, 1, 1, 0
    74,  1, 1,    1,    1,    0.0015, 0.0004930262, 0, 0, 0, 0, 1, 1, 0
    75,  1, 1,    1,    1,    0.0015, 0.0004930262, 0, 0, 0, 0, 1, 1, 0
    76,  1, 1,    1,    1,    0.0015, 0.0004930262, 0, 0, 0, 0, 1, 1, 0
    77,  1, 1,    1,    1,    0.0015, 0.0004930262, 0, 0, 0, 0, 1, 1, 0
    78,  1, 1,    1,    1,    0.0015, 0.0004930262, 0, 0, 0, 0, 1, 1, 0
    79,  1, 1,    1,    1,    0.0015, 0.0004930262, 0, 0, 0, 0, 1, 1, 0
    80,  1, 1,    1,    1,    0.0015, 0.0004930262, 0, 0, 0, 0, 1, 1, 0
    81,  1, 1,    1,    1,    0.0015, 0.0004930262, 0, 0, 0, 0, 1, 1, 0
    82,  1, 1,    1,    1,    0.0015, 0.0004930262, 0, 0, 0, 0, 1, 1, 0
    83,  1, 1,    1,    1,    0.0015, 0.0004930262, 0, 0, 0, 0, 1, 1, 0
    84,  1, 1,    1,    1,    0.0015, 0.0004930262, 0, 0, 0, 0, 1, 1, 0
    85,  1, 1,    1,    1,    0.0015, 0.0004930262, 0, 0, 0, 0, 1, 1, 0
    86,  1, 1,    1,    1,    0.0015, 0.0004930262, 0, 0, 0, 0, 1, 1, 0
    87,  1, 1,    1,    1,    0.0015, 0.0004930262, 0, 0, 0, 0, 1, 1, 0
    88,  1, 1,    1,    1,    0.0015, 0.0004930262, 0, 0, 0, 0, 1, 1, 0
    89,  1, 1,    1,    1,    0.0015, 0.0004930262, 0, 0, 0, 0, 1, 1, 0
    90,  1, 1,    1,    1,    0.0015, 0.0004930262, 0, 0, 0, 0, 1, 1, 0
    91,  1, 1,    1,    1,    0.0015, 0.0004930262, 0, 0, 0, 0, 1, 1, 0
    92,  1, 1,    1,    1,    0.0015, 0.0004930262, 0, 0, 0, 0, 1, 1, 0
    93,  1, 1,    1,    1,    0.0015, 0.0004930262, 0, 0, 0, 0, 1, 1, 0
    94,  1, 1,    1,    1,    0.0015, 0.0004930262, 0, 0, 0, 0, 1, 1, 0
    95,  1, 1,    1,    1,    0.0015, 0.0004930262, 0, 0, 0, 0, 1, 1, 0
    96,  1, 1,    1,    1,    0.0015, 0.0004930262, 0, 0, 0, 0, 1, 1, 0
    97,  1, 1,    1,    1,    0.0015, 0.0004930262, 0, 0, 0, 0, 1, 1, 0
    98,  1, 1,    1,    1,    0.0015, 0.0004930262, 0, 0, 0, 0, 1, 1, 0
    99,  1, 1,    1,    1,    0.0015, 0.0004930262, 0, 0, 0, 0, 1, 1, 0
   100,  1, 1,    1,    1,    0.0015, 0.0004930262, 0, 0, 0, 0, 1, 1, 0
   101,  1, 1,    1,    1,    0.0015, 0.0004930262, 0, 0, 0, 0, 1, 1, 0
   102,  1, 1,    1,    1,    0.0015, 0.0004930262, 0, 0, 0, 0, 1, 1, 0
   103,  1, 1,    1,    1,    0.0015, 0.0004930262, 0, 0, 0, 0, 1, 1, 0
   104,  1, 1,    1,    1,    0.0015, 0.0004930262, 0, 0, 0, 0, 1, 1, 0
   105,  1, 1,    1,    1,    0.0015, 0.0004930262, 0, 0, 0, 0, 1, 1, 0
   106,  1, 1,    1,    1,    0.0015, 0.0004930262, 0, 0, 0, 0, 1, 1, 0
   107,  1, 1,    1,    1,    0.0015, 0.0004930262, 0, 0, 0, 0, 1, 1, 0
   108,  1, 1,    1,    1,    0.0015, 0.0004930262, 0, 0, 0, 0, 1, 1, 0
   109,  1, 1,    1,    1,    0.0015, 0.0004930262, 0, 0, 0, 0, 1, 1, 0
   110,  1, 1,    1,    1,    0.0015, 0.0004930262, 0, 0, 0, 0, 1, 1, 0
   111,  1, 1,    1,    1,    0.0015, 0.0004930262, 0, 0, 0, 0, 1, 1, 0
   112,  1, 1,    1,    1,    0.0015, 0.0004930262, 0, 0, 0, 0, 1, 1, 0
   113,  1, 1,    1,    1,    0.0015, 0.0004930262, 0, 0, 0, 0, 1, 1, 0
   114,  1, 1,    1,    1,    0.0015, 0.0004930262, 0, 0, 0, 0, 1, 1, 0
   115,  1, 1,    1,    1,    0.0015, 0.0004930262, 0, 0, 0, 0, 1, 1, 0
   116,  1, 1,    1,    1,    0.0015, 0.0004930262, 0, 0, 0, 0, 1, 1, 0
   117,  1, 1,    1,    1,    0.0015, 0.0004930262, 0, 0, 0, 0, 1, 1, 0
   118,  1, 1,    1,    1,    0.0015, 0.0004930262, 0, 0, 0, 0, 1, 1, 0
   119,  1, 1,    1,    1,    0.0015, 0.0004930262, 0, 0, 0, 0, 1, 1, 0
   120,  1, 1,    1,    1,    0.0015, 0.0004930262, 0, 0, 0, 0, 1, 1, 0
   121,  1, 1,    1,    1,    0.0015, 0.0004930262, 0, 0, 0, 0, 1, 1, 0
   122,  1, 1,    1,    1,    0.0015, 0.0004930262, 0, 0, 0, 0, 1, 1, 0
   123,  1, 1,    1,    1,    0.0015, 0.0004930262, 0, 0, 0, 0, 1, 1, 0
   124,  1, 1,    1,    1,    0.0015, 0.0004930262, 0, 0, 0, 0, 1, 1, 0
   125,  1, 1,    1,    1,    0.0015, 0.0004930262, 0, 0, 0, 0, 1, 1, 0
   126,  1, 1,    1,    1,    0.0015, 0.0004930262, 0, 0, 0, 0, 1, 1, 0
   127,  1, 1,    1,    1,    0.0015, 0.0004930262, 0, 0, 0, 0, 1, 1, 0
   128,  1, 1,    1,    1,    0.0015, 0.0004930262, 0, 0, 0, 0, 1, 1, 0
   129,  1, 1,    1,    1,    0.0015, 0.0004930262, 0, 0, 0, 0, 1, 1, 0
   130,  1, 1,    1,    1,    0.0015, 0.0004930262, 0, 0, 0, 0, 1, 1, 0
   131,  1, 1,    1,    1,    0.0015, 0.0004930262, 0, 0, 0, 0, 1, 1, 0
   132,  1, 1,    1,    1,    0.0015, 0.0004930262, 0, 0, 0, 0, 1, 1, 0
   133,  1, 1,    1,    1,    0.0015, 0.0004930262, 0, 0, 0, 0, 1, 1, 0
   134,  1, 1,    1,    1,    0.0015, 0.0004930262, 0, 0, 0, 0, 1, 1, 0
   135,  1, 1,    1,    1,    0.0015, 0.0004930262, 0, 0, 0, 0, 1, 1, 0
   136,  1, 1,    1,    1,    0.0015, 0.0004930262, 0, 0, 0, 0, 1, 1, 0
   137,  1, 1,    1,    1,    0.0015, 0.0004930262, 0, 0, 0, 0, 1, 1, 0
   138,  1, 1,    1,    1,    0.0015, 0.0004930262, 0, 0, 0, 0, 1, 1, 0
   139,  1, 1,    1,    1,    0.0015, 0.0004930262, 0, 0, 0, 0, 1, 1, 0
   140,  1, 1,    1,    1,    0.0015, 0.0004930262, 0, 0, 0, 0, 1, 1, 0
   141,  1, 1,    1,    1,    0.0015, 0.0004930262, 0, 0, 0, 0, 1, 1, 0
   142,  1, 1,    1,    1,    0.0015, 0.0004930262, 0, 0, 0, 0, 1, 1, 0
   143,  1, 1,    1,    1,    0.0015, 0.0004930262, 0, 0, 0, 0, 1, 1, 0
   144,  1, 1,    1,    1,    0.0015, 0.0004930262, 0, 0, 0, 0, 1, 1, 0
   145,  1, 1,    1,    1,    0.0015, 0.0004930262, 0, 0, 0, 0, 1, 1, 0
   146,  1, 1,    1,    1,    0.0015, 0.0004930262, 0, 0, 0, 0, 1, 1, 0
   147,  1, 1,    1,    1,    0.0015, 0.0004930262, 0, 0, 0, 0, 1, 1, 0
   148,  1, 1,    1,    1,    0.0015, 0.0004930262, 0, 0, 0, 0, 1, 1, 0
   149,  1, 1,    1,    1,    0.0015, 0.0004930262, 0, 0, 0, 0, 1, 1, 0
   150,  1, 1,    1,    1,    0.0015, 0.0004930262, 0, 0, 0, 0, 1, 1, 0
   151,  1, 1,    1,    1,    0.0015, 0.0004930262, 0, 0, 0, 0, 1, 1, 0
   152,  1, 1,    1,    1,    0.0015, 0.0004930262, 0, 0, 0, 0, 1, 1, 0
   153,  1, 1,    1,    1,    0.0015, 0.0004930262, 0, 0, 0, 0, 1, 1, 0
   154,  1, 1,    1,    1,    0.0015, 0.0004930262, 0, 0, 0, 0, 1, 1, 0
   155,  1, 1,    1,    1,    0.0015, 0.0004930262, 0, 0, 0, 0, 1, 1, 0
   156,  1, 1,    1,    1,    0.0015, 0.0004930262, 0, 0, 0, 0, 1, 1, 0
   157,  1, 1,    1,    1,    0.0015, 0.0004930262, 0, 0, 0, 0, 1, 1, 0
   158,  1, 1,    1,    1,    0.0015, 0.0004930262, 0, 0, 0, 0, 1, 1, 0
   159,  1, 1,    1,    1,    0.0015, 0.0004930262, 0, 0, 0, 0, 1, 1, 0
   160,  1, 1,    1,    1,    0.0015, 0.0004930262, 0, 0, 0, 0, 1, 1, 0
   161,  1, 1,    1,    1,    0.0015, 0.0004930262, 0, 0, 0, 0, 1, 1, 0
   162,  1, 1,    1,    1,    0.0015, 0.0004930262, 0, 0, 0, 0, 1, 1, 0
   163,  1, 1,    1,    1,    0.0015, 0.0004930262, 0, 0, 0, 0, 1, 1, 0
   164,  1, 1,    1,    1,    0.0015, 0.0004930262, 0, 0, 0, 0, 1, 1, 0
   165,  1, 1,    1,    1,    0.0015, 0.0004930262, 0, 0, 0, 0, 1, 1, 0
   166,  1, 1,    1,    1,    0.0015, 0.0004930262, 0, 0, 0, 0, 1, 1, 0
   167,  1, 1,    1,    1,    0.0015, 0.0004930262, 0, 0, 0, 0, 1, 1, 0
   168,  1, 1,    1,    1,    0.0015, 0.0004930262, 0, 0, 0, 0, 1, 1, 0
   169,  1, 1,    1,    1,    0.0015, 0.0004930262, 0, 0, 0, 0, 1, 1, 0
   170,  1, 1,    1,    1,    0.0015, 0.0004930262, 0, 0, 0, 0, 1, 1, 0
   171,  1, 1,    1,    1,    0.0015, 0.0004930262, 0, 0, 0, 0, 1, 1, 0
   172,  1, 1,    1,    1,    0.0015, 0.0004930262, 0, 0, 0, 0, 1, 1, 0
   173,  1, 1,    1,    1,    0.0015, 0.0004930262, 0, 0, 0, 0, 1, 1, 0
   174,  1, 1,    1,    1,    0.0015, 0.0004930262, 0, 0, 0, 0, 1, 1, 0
   175,  1, 1,    1,    1,    0.0015, 0.0004930262, 0, 0, 0, 0, 1, 1, 0
   176,  1, 1,    1,    1,    0.0015, 0.0004930262, 0, 0, 0, 0, 1, 1, 0
   177,  1, 1,    1,    1,    0.0015, 0.0004930262, 0, 0, 0, 0, 1, 1, 0
   178,  1, 1,    1,    1,    0.0015, 0.0004930262, 0, 0, 0, 0, 1, 1, 0
   179,  1, 1,    1,    1,    0.0015, 0.0004930262, 0, 0, 0, 0, 1, 1, 0
   180,  1, 1,    1,    1,    0.0015, 0.0004930262, 0, 0, 0, 0, 1, 1, 0
   181,  1, 1,    1,    1,    0.0015, 0.0004930262, 0, 0, 0, 0, 1, 1, 0
   182,  1, 1,    1,    1,    0.0015, 0.0004930262, 0, 0, 0, 0, 1, 1, 0
   183,  1, 1,    1,    1,    0.0015, 0.0004930262, 0, 0, 0, 0, 1, 1, 0
   184,  1, 1,    1,    1,    0.0015, 0.0004930262, 0, 0, 0, 0, 1, 1, 0
   185,  1, 1,    1,    1,    0.0015, 0.0004930262, 0, 0, 0, 0, 1, 1, 0
   186,  1, 1,    1,    1,    0.0015, 0.0004930262, 0, 0, 0, 0, 1, 1, 0
   187,  1, 1,    1,    1,    0.0015, 0.0004930262, 0, 0, 0, 0, 1, 1, 0
   188,  1, 1,    1,    1,    0.0015, 0.0004930262, 0, 0, 0, 0, 1, 1, 0
   189,  1, 1,    1,    1,    0.0015, 0.0004930262, 0, 0, 0, 0, 1, 1, 0
   190,  1, 1,    1,    1,    0.0015, 0.0004930262, 0, 0, 0, 0, 1, 1, 0
   191,  1, 1,    1,    1,    0.0015, 0.0004930262, 0, 0, 0, 0, 1, 1, 0
   192,  1, 1,    1,    1,    0.0015, 0.0004930262, 0, 0, 0, 0, 1, 1, 0
   193,  1, 1,    1,    1,    0.0015, 0.0004930262, 0, 0, 0, 0, 1, 1, 0
   194,  1, 1,    1,    1,    0.0015, 0.0004930262, 0, 0, 0, 0, 1, 1, 0
   195,  1, 1,    1,    1,    0.0015, 0.0004930262, 0, 0, 0, 0, 1, 1, 0
   196,  1, 1,    1,    1,    0.0015, 0.0004930262, 0, 0, 0, 0, 1, 1, 0
   197,  1, 1,    1,    1,    0.0015, 0.0004930262, 0, 0, 0, 0, 1, 1, 0
   198,  1, 1,    1,    1,    0.0015, 0.0004930262, 0, 0, 0, 0, 1, 1, 0
   199,  1, 1,    1,    1,    0.0015, 0.0004930262, 0, 0, 0, 0, 1, 1, 0
   200,  1, 1,    1,    1,    0.0015, 0.0004930262, 0, 0, 0, 0, 1, 1, 0
   201,  1, 1,    1,    1,    0.0015, 0.0004930262, 0, 0, 0, 0, 1, 1, 0
   202,  1, 1,    1,    1,    0.0015, 0.0004930262, 0, 0, 0, 0, 1, 1, 0
   203,  1, 1,    1,    1,    0.0015, 0.0004930262, 0, 0, 0, 0, 1, 1, 0
   204,  1, 1,    1,    1,    0.0015, 0.0004930262, 0, 0, 0, 0, 1, 1, 0
   205,  1, 1,    1,    1,    0.0015, 0.0004930262, 0, 0, 0, 0, 1, 1, 0
   206,  1, 1,    1,    1,    0.0015, 0.0004930262, 0, 0, 0, 0, 1, 1, 0
   207,  1, 1,    1,    1,    0.0015, 0.0004930262, 0, 0, 0, 0, 1, 1, 0
   208,  1, 1,    1,    1,    0.0015, 0.0004930262, 0, 0, 0, 0, 1, 1, 0
   209,  1, 1,    1,    1,    0.0015, 0.0004930262, 0, 0, 0, 0, 1, 1, 0
   210,  1, 1,    1,    1,    0.0015, 0.0004930262, 0, 0, 0, 0, 1, 1, 0
   211,  1, 1,    1,    1,    0.0015, 0.0004930262, 0, 0, 0, 0, 1, 1, 0
   212,  1, 1,    1,    1,    0.0015, 0.0004930262, 0, 0, 0, 0, 1, 1, 0
   213,  1, 1,    1,    1,    0.0015, 0.0004930262, 0, 0, 0, 0, 1, 1, 0
   214,  1, 1,    1,    1,    0.0015, 0.0004930262, 0, 0, 0, 0, 1, 1, 0
   215,  1, 1,    1,    1,    0.0015, 0.0004930262, 0, 0, 0, 0, 1, 1, 0
   216,  1, 1,    1,    1,    0.0015, 0.0004930262, 0, 0, 0, 0, 1, 1, 0
   217,  1, 1,    1,    1,    0.0015, 0.0004930262, 0, 0, 0, 0, 1, 1, 0
   218,  1, 1,    1,    1,    0.0015, 0.0004930262, 0, 0, 0, 0, 1, 1, 0
   219,  1, 1,    1,    1,    0.0015, 0.0004930262, 0, 0, 0, 0, 1, 1, 0
   220,  1, 1,    1,    1,    0.0015, 0.0004930262, 0, 0, 0, 0, 1, 1, 0
   221,  1, 1,    1,    1,    0.0015, 0.0004930262, 0, 0, 0, 0, 1, 1, 0
   222,  1, 1,    1,    1,    0.0015, 0.0004930262, 0, 0, 0, 0, 1, 1, 0
   223,  1, 1,    1,    1,    0.0015, 0.0004930262, 0, 0, 0, 0, 1, 1, 0
   224,  1, 1,    1,    1,    0.0015, 0.0004930262, 0, 0, 0, 0, 1, 1, 0
   225,  1, 1,    1,    1,    0.0015, 0.0004930262, 0, 0, 0, 0, 1, 1, 0
   226,  1, 1,    1,    1,    0.0015, 0.0004930262, 0, 0, 0, 0, 1, 1, 0
   227,  1, 1,    1,    1,    0.0015, 0.0004930262, 0, 0, 0, 0, 1, 1, 0
   228,  1, 1,    1,    1,    0.0015, 0.0004930262, 0, 0, 0, 0, 1, 1, 0
   229,  1, 1,    1,    1,    0.0015, 0.0004930262, 0, 0, 0, 0, 1, 1, 0
   230,  1, 1,    1,    1,    0.0015, 0.0004930262, 0, 0, 0, 0, 1, 1, 0
   231,  1, 1,    1,    1,    0.0015, 0.0004930262, 0, 0, 0, 0, 1, 1, 0
...
0 / END OF LOAD DATA, BEGIN FIXED SHUNT DATA
0 / END OF FIXED SHUNT DATA, BEGIN GENERATOR DATA
     1,  1,         0,         0,       300,      -250,        1, 0,     100, 0, 1, 0, 0, 1, 1, 100,       600,        10, 1, 1, 0, 1, 0, 1, 0, 1, 0, 1
0 / END OF GENERATOR DATA, BEGIN BRANCH DATA
     2,      3, 1,   0.0527,   0.0028,        0,       0,       0,       0, 0, 0, 0, 0, 1, 1, 0, 1, 1, 0, 1, 0, 1, 0, 1
     3,      4, 1,   0.0839,    0.083,        0,       0,       0,       0, 0, 0, 0, 0, 1, 1, 0, 1, 1, 0, 1, 0, 1, 0, 1
     4,      5, 1,   0.1633,    0.142,        0,       0,       0,       0, 0, 0, 0, 0, 1, 1, 0, 1, 1, 0, 1, 0, 1, 0, 1
     5,      6, 1,   0.1633,    0.142,        0,       0,       0,       0, 0, 0, 0, 0, 1, 1, 0, 1, 1, 0, 1, 0, 1, 0, 1
     6,      7, 1,   0.2597,   0.1463,        0,       0,       0,       0, 0, 0, 0, 0, 1, 1, 0, 1, 1, 0, 1, 0, 1, 0, 1
     7,      8, 1,   0.2597,   0.1463,        0,       0,       0,       0, 0, 0, 0, 0, 1, 1, 0, 1, 1, 0, 1, 0, 1, 0, 1
     8,      9, 1,   0.2597,   0.1463,        0,       0,       0,       0, 0, 0, 0, 0, 1, 1, 0, 1, 1, 0, 1, 0, 1, 0, 1
     9,     10, 1,   0.2597,   0.1463,        0,       0,       0,       0, 0, 0, 0, 0, 1, 1, 0, 1, 1, 0, 1, 0, 1, 0, 1
    10,     11, 1,   0.2597,   0.1463,        0,       0,       0,       0, 0, 0, 0, 0, 1, 1, 0, 1, 1, 0, 1, 0, 1, 0, 1
    11,     12, 1,   0.2597,   0.1463,        0,       0,       0,       0, 0, 0, 0, 0, 1, 1, 0, 1, 1, 0, 1, 0, 1, 0, 1
    12,     13, 1,   0.2597,   0.1463,        0,       0,       0,       0, 0, 0, 0, 0, 1, 1, 0, 1, 1, 0, 1, 0, 1, 0, 1
    13,     14, 1,   0.2597,   0.1463,        0,       0,       0,       0, 0, 0, 0, 0, 1, 1, 0, 1, 1, 0, 1, 0, 1, 0, 1
    14,     15, 1,   0.2597,   0.1463,        0,       0,       0,       0, 0, 0, 0, 0, 1, 1, 0, 1, 1, 0, 1, 0, 1, 0, 1
     9,     16, 1,   0.1633,    0.142,        0,       0,       0,       0, 0, 0, 0, 0, 1, 1, 0, 1, 1, 0, 1, 0, 1, 0, 1
    16,     17, 1,   0.2597,   0.1463,        0,       0,       0,       0, 0, 0, 0, 0, 1, 1, 0, 1, 1, 0, 1, 0, 1, 0, 1
    17,     18, 1,   0.2597,   0.1463,        0,       0,       0,       0, 0, 0, 0, 0, 1, 1, 0, 1, 1, 0, 1, 0, 1, 0, 1
     7,     19, 1,   0.1633,    0.142,        0,       0,       0,       0, 0, 0, 0, 0, 1, 1, 0, 1, 1, 0, 1, 0, 1, 0, 1
    19,     20, 1,   0.1633,    0.142,        0,       0,       0,       0, 0, 0, 0, 0, 1, 1, 0, 1, 1, 0, 1, 0, 1, 0, 1
    20,     21, 1,   0.2597,   0.1463,        0,       0,       0,       0, 0, 0, 0, 0, 1, 1, 0, 1, 1, 0, 1, 0, 1, 0, 1
     7,     22, 1,   0.1633,    0.142,        0,       0,       0,       0, 0, 0, 0, 0, 1, 1, 0, 1, 1, 0, 1, 0, 1, 0, 1
     4,     23, 1,   0.0839,    0.083,        0,       0,       0,       0, 0, 0, 0, 0, 1, 1, 0, 1, 1, 0, 1, 0, 1, 0, 1
    23,     24, 1,   0.0839,    0.083,        0,       0,       0,       0, 0, 0, 0, 0, 1, 1, 0, 1, 1, 0, 1, 0, 1, 0, 1
    24,     25, 1,   0.1633,    0.142,        0,       0,       0,       0, 0, 0, 0, 0, 1, 1, 0, 1, 1, 0, 1, 0, 1, 0, 1
    25,     26, 1,   0.1633,    0.142,        0,       0,       0,       0, 0, 0, 0, 0, 1, 1, 0, 1, 1, 0, 1, 0, 1, 0, 1
    26,     27, 1,   0.1633,    0.142,        0,       0,       0,       0, 0, 0, 0, 0, 1, 1, 0, 1, 1, 0, 1, 0, 1, 0, 1
    27,     28, 1,   0.2597,   0.1463,        0,       0,       0,       0, 0, 0, 0, 0, 1, 1, 0, 1, 1, 0, 1, 0, 1, 0, 1
     2,     29, 1,   0.0527,   0.0028,        0,       0,       0,       0, 0, 0, 0, 0, 1, 1, 0, 1, 1, 0, 1, 0, 1, 0, 1
    29,     30, 1,   0.0527,   0.0028,        0,       0,       0,       0, 0, 0, 0, 0, 1, 1, 0, 1, 1, 0, 1, 0, 1, 0, 1
    30,     31, 1,   0.2597,   0.1463,        0,       0,       0,       0, 0, 0, 0, 0, 1, 1, 0, 1, 1, 0, 1, 0, 1, 0, 1
    32,     33, 1, 24.06819, 8.397016,        0,       0,       0,       0, 0, 0, 0, 0, 1, 1, 0, 1, 1, 0, 1, 0, 1, 0, 1
    33,     35, 1, 24.62352, 10.98818,        0,       0,       0,       0, 0, 0, 0, 0, 1, 1, 0, 1, 1, 0, 1, 0, 1, 0, 1
    35,     37, 1, 25.75709, 11.49403,        0,       0,       0,       0, 0, 0, 0, 0, 1, 1, 0, 1, 1, 0, 1, 0, 1, 0, 1
    37,     39, 1, 21.43466, 9.565162,        0,       0,       0,       0, 0, 0, 0, 0, 1, 1, 0, 1, 1, 0, 1, 0, 1, 0, 1
    39,     40, 1, 30.21119, 13.48167,        0,       0,       0,       0, 0, 0, 0, 0, 1, 1, 0, 1, 1, 0, 1, 0, 1, 0, 1
    40,     43, 1, 30.40012, 13.56597,        0,       0,       0,       0, 0, 0, 0, 0, 1, 1, 0, 1, 1, 0, 1, 0, 1, 0, 1
    43,     44, 1, 0.298127, 0.113398,        0,       0,       0,       0, 0, 0, 0, 0, 1, 1, 0, 1, 1, 0, 1, 0, 1, 0, 1
    43,     46, 1, 116.2688, 11.59546,        0,       0,       0,       0, 0, 0, 0, 0, 1, 1, 0, 1, 1, 0, 1, 0, 1, 0, 1
    43,     45, 1, 1006.825, 100.4104,        0,       0,       0,       0, 0, 0, 0, 0, 1, 1, 0, 1, 1, 0, 1, 0, 1, 0, 1
    40,     42, 1, 151.3729, 15.09638,        0,       0,       0,       0, 0, 0, 0, 0, 1, 1, 0, 1, 1, 0, 1, 0, 1, 0, 1
    40,     41, 1, 789.9707, 78.78356,        0,       0,       0,       0, 0, 0, 0, 0, 1, 1, 0, 1, 1, 0, 1, 0, 1, 0, 1
    37,     38, 1, 81.42256,  8.12025,        0,       0,       0,       0, 0, 0, 0, 0, 1, 1, 0, 1, 1, 0, 1, 0, 1, 0, 1
    35,     36, 1, 450.7458, 44.95276,        0,       0,       0,       0, 0, 0, 0, 0, 1, 1, 0, 1, 1, 0, 1, 0, 1, 0, 1
    33,     34, 1, 347.0449, 34.61069,        0,       0,       0,       0, 0, 0, 0, 0, 1, 1, 0, 1, 1, 0, 1, 0, 1, 0, 1
    32,     47, 1, 9.464363, 3.599942,        0,       0,       0,       0, 0, 0, 0, 0, 1, 1, 0, 1, 1, 0, 1, 0, 1, 0, 1
    47,     52, 1, 24.06819, 8.397016,        0,       0,       0,       0, 0, 0, 0, 0, 1, 1, 0, 1, 1, 0, 1, 0, 1, 0, 1
    52,     54, 1, 24.62352, 10.98818,        0,       0,       0,       0, 0, 0, 0, 0, 1, 1, 0, 1, 1, 0, 1, 0, 1, 0, 1
    54,     56, 1, 25.75709, 11.49403,        0,       0,       0,       0, 0, 0, 0, 0, 1, 1, 0, 1, 1, 0, 1, 0, 1, 0, 1
    56,     58, 1, 21.43466, 9.565162,        0,       0,       0,       0, 0, 0, 0, 0, 1, 1, 0, 1, 1, 0, 1, 0, 1, 0, 1
    58,     59, 1, 30.21119, 13.48167,        0,       0,       0,       0, 0, 0, 0, 0, 1, 1, 0, 1, 1, 0, 1, 0, 1, 0, 1
    59,     62, 1, 30.40012, 13.56597,        0,       0,       0,       0, 0, 0, 0, 0, 1, 1, 0, 1, 1, 0, 1, 0, 1, 0, 1
    62,     63, 1, 0.298127, 0.113398,        0,       0,       0,       0, 0, 0, 0, 0, 1, 1, 0, 1, 1, 0, 1, 0, 1, 0, 1
    62,     65, 1, 116.2688, 11.59546,        0,       0,       0,       0, 0, 0, 0, 0, 1, 1, 0, 1, 1, 0, 1, 0, 1, 0, 1
    62,     64, 1, 1006.825, 100.4104,        0,       0,       0,       0, 0, 0, 0, 0, 1, 1, 0, 1, 1, 0, 1, 0, 1, 0, 1
    59,     61, 1, 151.3729, 15.09638,        0,       0,       0,       0, 0, 0, 0, 0, 1, 1, 0, 1, 1, 0, 1, 0, 1, 0, 1
    59,     60, 1, 789.9707, 78.78356,        0,       0,       0,       0, 0, 0, 0, 0, 1, 1, 0, 1, 1, 0, 1, 0, 1, 0, 1
    56,     57, 1, 81.42256,  8.12025,        0,       0,       0,       0, 0, 0, 0, 0, 1, 1, 0, 1, 1, 0, 1, 0, 1, 0, 1
    54,     55, 1, 450.7458, 44.95276,        0,       0,       0,       0, 0, 0, 0, 0, 1, 1, 0, 1, 1, 0, 1, 0, 1, 0, 1
    52,     53, 1, 347.0449, 34.61069,        0,       0,       0,       0, 0, 0, 0, 0, 1, 1, 0, 1, 1, 0, 1, 0, 1, 0, 1
    47,     48, 1, 82.61847, 28.82429,        0,       0,       0,       0, 0, 0, 0, 0, 1, 1, 0, 1, 1, 0, 1, 0, 1, 0, 1
    48,     49, 1, 48.60583, 16.95782,        0,       0,       0,       0, 0, 0, 0, 0, 1, 1, 0, 1, 1, 0, 1, 0, 1, 0, 1
    49,     50, 1, 181.3639, 18.08737,        0,       0,       0,       0, 0, 0, 0, 0, 1, 1, 0, 1, 1, 0, 1, 0, 1, 0, 1
    47,     51, 1, 9.464363, 3.599942,        0,       0,       0,       0, 0, 0, 0, 0, 1, 1, 0, 1, 1, 0, 1, 0, 1, 0, 1
    32,     66, 1, 9.464363, 3.599942,        0,       0,       0,       0, 0, 0, 0, 0, 1, 1, 0, 1, 1, 0, 1, 0, 1, 0, 1
    66,     71, 1, 24.06819, 8.397016,        0,       0,       0,       0, 0, 0, 0, 0, 1, 1, 0, 1, 1, 0, 1, 0, 1, 0, 1
    71,     73, 1, 24.62352, 10.98818,        0,       0,       0,       0, 0, 0, 0, 0, 1, 1, 0, 1, 1, 0, 1, 0, 1, 0, 1
    73,     75, 1, 25.75709, 11.49403,        0,       0,       0,       0, 0, 0, 0, 0, 1, 1, 0, 1, 1, 0, 1, 0, 1, 0, 1
    75,     77, 1, 21.43466, 9.565162,        0,       0,       0,       0, 0, 0, 0, 0, 1, 1, 0, 1, 1, 0, 1, 0, 1, 0, 1
    77,     78, 1, 30.21119, 13.48167,        0,       0,       0,       0, 0, 0, 0, 0, 1, 1, 0, 1, 1, 0, 1, 0, 1, 0, 1
    78,     81, 1, 30.40012, 13.56597,        0,       0,       0,       0, 0, 0, 0, 0, 1, 1, 0, 1, 1, 0, 1, 0, 1, 0, 1
    81,     82, 1, 0.298127, 0.113398,        0,       0,       0,       0, 0, 0, 0, 0, 1, 1, 0, 1, 1, 0, 1, 0, 1, 0, 1
    81,     84, 1, 116.2688, 11.59546,        0,       0,       0,       0, 0, 0, 0, 0, 1, 1, 0, 1, 1, 0, 1, 0, 1, 0, 1
    81,     83, 1, 1006.825, 100.4104,        0,       0,       0,       0, 0, 0, 0, 0, 1, 1, 0, 1, 1, 0, 1, 0, 1, 0, 1
    78,     80, 1, 151.3729, 15.09638,        0,       0,       0,       0, 0, 0, 0, 0, 1, 1, 0, 1, 1, 0, 1, 0, 1, 0, 1
    78,     79, 1, 789.9707, 78.78356,        0,       0,       0,       0, 0, 0, 0, 0, 1, 1, 0, 1, 1, 0, 1, 0, 1, 0, 1
    75,     76, 1, 81.42256,  8.12025,        0,       0,       0,       0, 0, 0, 0, 0, 1, 1, 0, 1, 1, 0, 1, 0, 1, 0, 1
    73,     74, 1, 450.7458, 44.95276,        0,       0,       0,       0, 0, 0, 0, 0, 1, 1, 0, 1, 1, 0, 1, 0, 1, 0, 1
    71,     72, 1, 347.0449, 34.61069,        0,       0,       0,       0, 0, 0, 0, 0, 1, 1, 0, 1, 1, 0, 1, 0, 1, 0, 1
    66,     67, 1, 82.61847, 28.82429,        0,       0,       0,       0, 0, 0, 0, 0, 1, 1, 0, 1, 1, 0, 1, 0, 1, 0, 1
    67,     68, 1, 48.60583, 16.95782,        0,       0,       0,       0, 0, 0, 0, 0, 1, 1, 0, 1, 1, 0, 1, 0, 1, 0, 1
    68,     69, 1, 181.3639, 18.08737,        0,       0,       0,       0, 0, 0, 0, 0, 1, 1, 0, 1, 1, 0, 1, 0, 1, 0, 1
    66,     70, 1, 9.464363, 3.599942,        0,       0,       0,       0, 0, 0, 0, 0, 1, 1, 0, 1, 1, 0, 1, 0, 1, 0, 1
    85,     86, 1, 24.06819, 8.397016,        0,       0,       0,       0, 0, 0, 0, 0, 1, 1, 0, 1, 1, 0, 1, 0, 1, 0, 1
    86,     88, 1, 24.62352, 10.98818,        0,       0,       0,       0, 0, 0, 0, 0, 1, 1, 0, 1, 1, 0, 1, 0, 1, 0, 1
    88,     90, 1, 25.75709, 11.49403,        0,       0,       0,       0, 0, 0, 0, 0, 1, 1, 0, 1, 1, 0, 1, 0, 1, 0, 1
    90,     92, 1, 21.43466, 9.565162,        0,       0,       0,       0, 0, 0, 0, 0, 1, 1, 0, 1, 1, 0, 1, 0, 1, 0, 1
    92,     93, 1, 30.21119, 13.48167,        0,       0,       0,       0, 0, 0, 0, 0, 1, 1, 0, 1, 1, 0, 1, 0, 1, 0, 1
    93,     96, 1, 30.40012, 13.56597,        0,       0,       0,       0, 0, 0, 0, 0, 1, 1, 0, 1, 1, 0, 1, 0, 1, 0, 1
    96,     97, 1, 0.298127, 0.113398,        0,       0,       0,       0, 0, 0, 0, 0, 1, 1, 0, 1, 1, 0, 1, 0, 1, 0, 1
    96,     99, 1, 116.2688, 11.59546,        0,       0,       0,       0, 0, 0, 0, 0, 1, 1, 0, 1, 1, 0, 1, 0, 1, 0, 1
    96,     98, 1, 1006.825, 100.4104,        0,       0,       0,       0, 0, 0, 0, 0, 1, 1, 0, 1, 1, 0, 1, 0, 1, 0, 1
    93,     95, 1, 151.3729, 15.09638,        0,       0,       0,       0, 0, 0, 0, 0, 1, 1, 0, 1, 1, 0, 1, 0, 1, 0, 1
    93,     94, 1, 789.9707, 78.78356,        0,       0,       0,       0, 0, 0, 0, 0, 1, 1, 0, 1, 1, 0, 1, 0, 1, 0, 1
    90,     91, 1, 81.42256,  8.12025,        0,       0,       0,       0, 0, 0, 0, 0, 1, 1, 0, 1, 1, 0, 1, 0, 1, 0, 1
    88,     89, 1, 450.7458, 44.95276,        0,       0,       0,       0, 0, 0, 0, 0, 1, 1, 0, 1, 1, 0, 1, 0, 1, 0, 1
    86,     87, 1, 347.0449, 34.61069,        0,       0,       0,       0, 0, 0, 0, 0, 1, 1, 0, 1, 1, 0, 1, 0, 1, 0, 1
    85,    100, 1, 9.464363, 3.599942,        0,       0,       0,       0, 0, 0, 0, 0, 1, 1, 0, 1, 1, 0, 1, 0, 1, 0, 1
   100,    105, 1, 24.06819, 8.397016,        0,       0,       0,       0, 0, 0, 0, 0, 1, 1, 0, 1, 1, 0, 1, 0, 1, 0, 1
   105,    107, 1, 24.62352, 10.98818,        0,       0,       0,       0, 0, 0, 0, 0, 1, 1, 0, 1, 1, 0, 1, 0, 1, 0, 1
   107,    109, 1, 25.75709, 11.49403,        0,       0,       0,       0, 0, 0, 0, 0, 1, 1, 0, 1, 1, 0, 1, 0, 1, 0, 1
   109,    111, 1, 21.43466, 9.565162,        0,       0,       0,       0, 0, 0, 0, 0, 1, 1, 0, 1, 1, 0, 1, 0, 1, 0, 1
   111,    112, 1, 30.21119, 13.48167,        0,       0,       0,       0, 0, 0, 0, 0, 1, 1, 0, 1, 1, 0, 1, 0, 1, 0, 1
   112,    115, 1, 30.40012, 13.56597,        0,       0,       0,       0, 0, 0, 0, 0, 1, 1, 0, 1, 1, 0, 1, 0, 1, 0, 1
   115,    116, 1, 0.298127, 0.113398,        0,       0,       0,       0, 0, 0, 0, 0, 1, 1, 0, 1, 1, 0, 1, 0, 1, 0, 1
   115,    118, 1, 116.2688, 11.59546,        0,       0,       0,       0, 0, 0, 0, 0, 1, 1, 0, 1, 1, 0, 1, 0, 1, 0, 1
   115,    117, 1, 1006.825, 100.4104,        0,       0,       0,       0, 0, 0, 0, 0, 1, 1, 0, 1, 1, 0, 1, 0, 1, 0, 1
   112,    114, 1, 151.3729, 15.09638,        0,       0,       0,       0, 0, 0, 0, 0, 1, 1, 0, 1, 1, 0, 1, 0, 1, 0, 1
   112,    113, 1, 789.9707, 78.78356,        0,       0,       0,       0, 0, 0, 0, 0, 1, 1, 0, 1, 1, 0, 1, 0, 1, 0, 1
   109,    110, 1, 81.42256,  8.12025,        0,       0,       0,       0, 0, 0, 0, 0, 1, 1, 0, 1, 1, 0, 1, 0, 1, 0, 1
   107,    108, 1, 450.7458, 44.95276,        0,       0,       0,       0, 0, 0, 0, 0, 1, 1, 0, 1, 1, 0, 1, 0, 1, 0, 1
   105,    106, 1, 347.0449, 34.61069,        0,       0,       0,       0, 0, 0, 0, 0, 1, 1, 0, 1, 1, 0, 1, 0, 1, 0, 1
   100,    101, 1, 82.61847, 28.82429,        0,       0,       0,       0, 0, 0, 0, 0, 1, 1, 0, 1, 1, 0, 1, 0, 1, 0, 1
   101,    102, 1, 48.60583, 16.95782,        0,       0,       0,       0, 0, 0, 0, 0, 1, 1, 0, 1, 1, 0, 1, 0, 1, 0, 1
   102,    103, 1, 181.3639, 18.08737,        0,       0,       0,       0, 0, 0, 0, 0, 1, 1, 0, 1, 1, 0, 1, 0, 1, 0, 1
   100,    104, 1, 9.464363, 3.599942,        0,       0,       0,       0, 0, 0, 0, 0, 1, 1, 0, 1, 1, 0, 1, 0, 1, 0, 1
    85,    119, 1, 9.464363, 3.599942,        0,       0,       0,       0, 0, 0, 0, 0, 1, 1, 0, 1, 1, 0, 1, 0, 1, 0, 1
   119,    124, 1, 24.06819, 8.397016,        0,       0,       0,       0, 0, 0, 0, 0, 1, 1, 0, 1, 1, 0, 1, 0, 1, 0, 1
   124,    126, 1, 24.62352, 10.98818,        0,       0,       0,       0, 0, 0, 0, 0, 1, 1, 0, 1, 1, 0, 1, 0, 1, 0, 1
   126,    128, 1, 25.75709, 11.49403,        0,       0,       0,       0, 0, 0, 0, 0, 1, 1, 0, 1, 1, 0, 1, 0, 1, 0, 1
   128,    130, 1, 21.43466, 9.565162,        0,       0,       0,       0, 0, 0, 0, 0, 1, 1, 0, 1, 1, 0, 1, 0, 1, 0, 1
   130,    131, 1, 30.21119, 13.48167,        0,       0,       0,       0, 0, 0, 0, 0, 1, 1, 0, 1, 1, 0, 1, 0, 1, 0, 1
   131,    134, 1, 30.40012, 13.56597,        0,       0,       0,       0, 0, 0, 0, 0, 1, 1, 0, 1, 1, 0, 1, 0, 1, 0, 1
   134,    135, 1, 0.298127, 0.113398,        0,       0,       0,       0, 0, 0, 0, 0, 1, 1, 0, 1, 1, 0, 1, 0, 1, 0, 1
   134,    137, 1, 116.2688, 11.59546,        0,       0,       0,       0, 0, 0, 0, 0, 1, 1, 0, 1, 1, 0, 1, 0, 1, 0, 1
   134,    136, 1, 1006.825, 100.4104,        0,       0,       0,       0, 0, 0, 0, 0, 1, 1, 0, 1, 1, 0, 1, 0, 1, 0, 1
   131,    133, 1, 151.3729, 15.09638,        0,       0,       0,       0, 0, 0, 0, 0, 1, 1, 0, 1, 1, 0, 1, 0, 1, 0, 1
   131,    132, 1, 789.9707, 78.78356,        0,       0,       0,       0, 0, 0, 0, 0, 1, 1, 0, 1, 1, 0, 1, 0, 1, 0, 1
   128,    129, 1, 81.42256,  8.12025,        0,       0,       0,       0, 0, 0, 0, 0, 1, 1, 0, 1, 1, 0, 1, 0, 1, 0, 1
   126,    127, 1, 450.7458, 44.95276,        0,       0,       0,       0, 0, 0, 0, 0, 1, 1, 0, 1, 1, 0, 1, 0, 1, 0, 1
   124,    125, 1, 347.0449, 34.61069,        0,       0,       0,       0, 0, 0, 0, 0, 1, 1, 0, 1, 1, 0, 1, 0, 1, 0, 1
   119,    120, 1, 82.61847, 28.82429,        0,       0,       0,       0, 0, 0, 0, 0, 1, 1, 0, 1, 1, 0, 1, 0, 1, 0, 1
   120,    121, 1, 48.60583, 16.95782,        0,       0,       0,       0, 0, 0, 0, 0, 1, 1, 0, 1, 1, 0, 1, 0, 1, 0, 1
   121,    122, 1, 181.3639, 18.08737,        0,       0,       0,       0, 0, 0, 0, 0, 1, 1, 0, 1, 1, 0, 1, 0, 1, 0, 1
   119,    123, 1, 9.464363, 3.599942,        0,       0,       0,       0, 0, 0, 0, 0, 1, 1, 0, 1, 1, 0, 1, 0, 1, 0, 1
   138,    139, 1, 24.06819, 8.397016,        0,       0,       0,       0, 0, 0, 0, 0, 1, 1, 0, 1, 1, 0, 1, 0, 1, 0, 1
   139,    141, 1, 24.62352, 10.98818,        0,       0,       0,       0, 0, 0, 0, 0, 1, 1, 0, 1, 1, 0, 1, 0, 1, 0, 1
   141,    143, 1, 25.75709, 11.49403,        0,       0,       0,       0, 0, 0, 0, 0, 1, 1, 0, 1, 1, 0, 1, 0, 1, 0, 1
   143,    145, 1, 21.43466, 9.565162,        0,       0,       0,       0, 0, 0, 0, 0, 1, 1, 0, 1, 1, 0, 1, 0, 1, 0, 1
   145,    146, 1, 30.21119, 13.48167,        0,       0,       0,       0, 0, 0, 0, 0, 1, 1, 0, 1, 1, 0, 1, 0, 1, 0, 1
   146,    149, 1, 30.40012, 13.56597,        0,       0,       0,       0, 0, 0, 0, 0, 1, 1, 0, 1, 1, 0, 1, 0, 1, 0, 1
   149,    150, 1, 0.298127, 0.113398,        0,       0,       0,       0, 0, 0, 0, 0, 1, 1, 0, 1, 1, 0, 1, 0, 1, 0, 1
   149,    152, 1, 116.2688, 11.59546,        0,       0,       0,       0, 0, 0, 0, 0, 1, 1, 0, 1, 1, 0, 1, 0, 1, 0, 1
   149,    151, 1, 1006.825, 100.4104,        0,       0,       0,       0, 0, 0, 0, 0, 1, 1, 0, 1, 1, 0, 1, 0, 1, 0, 1
   146,    148, 1, 151.3729, 15.09638,        0,       0,       0,       0, 0, 0, 0, 0, 1, 1, 0, 1, 1, 0, 1, 0, 1, 0, 1
   146,    147, 1, 789.9707, 78.78356,        0,       0,       0,       0, 0, 0, 0, 0, 1, 1, 0, 1, 1, 0, 1, 0, 1, 0, 1
   143,    144, 1, 81.42256,  8.12025,        0,       0,       0,       0, 0, 0, 0, 0, 1, 1, 0, 1, 1, 0, 1, 0, 1, 0, 1
   141,    142, 1, 450.7458, 44.95276,        0,       0,       0,       0, 0, 0, 0, 0, 1, 1, 0, 1, 1, 0, 1, 0, 1, 0, 1
   139,    140, 1, 347.0449, 34.61069,        0,       0,       0,       0, 0, 0, 0, 0, 1, 1, 0, 1, 1, 0, 1, 0, 1, 0, 1
   138,    153, 1, 9.464363, 3.599942,        0,       0,       0,       0, 0, 0, 0, 0, 1, 1, 0, 1, 1, 0, 1, 0, 1, 0, 1
   153,    158, 1, 24.06819, 8.397016,        0,       0,       0,       0, 0, 0, 0, 0, 1, 1, 0, 1, 1, 0, 1, 0, 1, 0, 1
   158,    160, 1, 24.62352, 10.98818,        0,       0,       0,       0, 0, 0, 0, 0, 1, 1, 0, 1, 1, 0, 1, 0, 1, 0, 1
   160,    162, 1, 25.75709, 11.49403,        0,       0,       0,       0, 0, 0, 0, 0, 1, 1, 0, 1, 1, 0, 1, 0, 1, 0, 1
   162,    164, 1, 21.43466, 9.565162,        0,       0,       0,       0, 0, 0, 0, 0, 1, 1, 0, 1, 1, 0, 1, 0, 1, 0, 1
   164,    165, 1, 30.21119, 13.48167,        0,       0,       0,       0, 0, 0, 0, 0, 1, 1, 0, 1, 1, 0, 1, 0, 1, 0, 1
   165,    168, 1, 30.40012, 13.56597,        0,       0,       0,       0, 0, 0, 0, 0, 1, 1, 0, 1, 1, 0, 1, 0, 1, 0, 1
   168,    169, 1, 0.298127, 0.113398,        0,       0,       0,       0, 0, 0, 0, 0, 1, 1, 0, 1, 1, 0, 1, 0, 1, 0, 1
   168,    171, 1, 116.2688, 11.59546,        0,       0,       0,       0, 0, 0, 0, 0, 1, 1, 0, 1, 1, 0, 1, 0, 1, 0, 1
   168,    170, 1, 1006.825, 100.4104,        0,       0,       0,       0, 0, 0, 0, 0, 1, 1, 0, 1, 1, 0, 1, 0, 1, 0, 1
   165,    167, 1, 151.3729, 15.09638,        0,       0,       0,       0, 0, 0, 0, 0, 1, 1, 0, 1, 1, 0, 1, 0, 1, 0, 1
   165,    166, 1, 789.9707, 78.78356,        0,       0,       0,       0, 0, 0, 0, 0, 1, 1, 0, 1, 1, 0, 1, 0, 1, 0, 1
   162,    163, 1, 81.42256,  8.12025,        0,       0,       0,       0, 0, 0, 0, 0, 1, 1, 0, 1, 1, 0, 1, 0, 1, 0, 1
   160,    161, 1, 450.7458, 44.95276,        0,       0,       0,       0, 0, 0, 0, 0, 1, 1, 0, 1, 1, 0, 1, 0, 1, 0, 1
   158,    159, 1, 347.0449, 34.61069,        0,       0,       0,       0, 0, 0, 0, 0, 1, 1, 0, 1, 1, 0, 1, 0, 1, 0, 1
   153,    154, 1, 82.61847, 28.82429,        0,       0,       0,       0, 0, 0, 0, 0, 1, 1, 0, 1, 1, 0, 1, 0, 1, 0, 1
   154,    155, 1, 48.60583, 16.95782,        0,       0,       0,       0, 0, 0, 0, 0, 1, 1, 0, 1, 1, 0, 1, 0, 1, 0, 1
   155,    156, 1, 181.3639, 18.08737,        0,       0,       0,       0, 0, 0, 0, 0, 1, 1, 0, 1, 1, 0, 1, 0, 1, 0, 1
   153,    157, 1, 9.464363, 3.599942,        0,       0,       0,       0, 0, 0, 0, 0, 1, 1, 0, 1, 1, 0, 1, 0, 1, 0, 1
   138,    172, 1, 9.464363, 3.599942,        0,       0,       0,       0, 0, 0, 0, 0, 1, 1, 0, 1, 1, 0, 1, 0, 1, 0, 1
   172,    177, 1, 24.06819, 8.397016,        0,       0,       0,       0, 0, 0, 0, 0, 1, 1, 0, 1, 1, 0, 1, 0, 1, 0, 1
   177,    179, 1, 24.62352, 10.98818,        0,       0,       0,       0, 0, 0, 0, 0, 1, 1, 0, 1, 1, 0, 1, 0, 1, 0, 1
   179,    181, 1, 25.75709, 11.49403,        0,       0,       0,       0, 0, 0, 0, 0, 1, 1, 0, 1, 1, 0, 1, 0, 1, 0, 1
   181,    183, 1, 21.43466, 9.565162,        0,       0,       0,       0, 0, 0, 0, 0, 1, 1, 0, 1, 1, 0, 1, 0, 1, 0, 1
   183,    184, 1, 30.21119, 13.48167,        0,       0,       0,       0, 0, 0, 0, 0, 1, 1, 0, 1, 1, 0, 1, 0, 1, 0, 1
   184,    187, 1, 30.40012, 13.56597,        0,       0,       0,       0, 0, 0, 0, 0, 1, 1, 0, 1, 1, 0, 1, 0, 1, 0, 1
   187,    188, 1, 0.298127, 0.113398,        0,       0,       0,       0, 0, 0, 0, 0, 1, 1, 0, 1, 1, 0, 1, 0, 1, 0, 1
   187,    190, 1, 116.2688, 11.59546,        0,       0,       0,       0, 0, 0, 0, 0, 1, 1, 0, 1, 1, 0, 1, 0, 1, 0, 1
   187,    189, 1, 1006.825, 100.4104,        0,       0,       0,       0, 0, 0, 0, 0, 1, 1, 0, 1, 1, 0, 1, 0, 1, 0, 1
   184,    186, 1, 151.3729, 15.09638,        0,       0,       0,       0, 0, 0, 0, 0, 1, 1, 0, 1, 1, 0, 1, 0, 1, 0, 1
   184,    185, 1, 789.9707, 78.78356,        0,       0,       0,       0, 0, 0, 0, 0, 1, 1, 0, 1, 1, 0, 1, 0, 1, 0, 1
   181,    182, 1, 81.42256,  8.12025,        0,       0,       0,       0, 0, 0, 0, 0, 1, 1, 0, 1, 1, 0, 1, 0, 1, 0, 1
   179,    180, 1, 450.7458, 44.95276,        0,       0,       0,       0, 0, 0, 0, 0, 1, 1, 0, 1, 1, 0, 1, 0, 1, 0, 1
   177,    178, 1, 347.0449, 34.61069,        0,       0,       0,       0, 0, 0, 0, 0, 1, 1, 0, 1, 1, 0, 1, 0, 1, 0, 1
   172,    173, 1, 82.61847, 28.82429,        0,       0,       0,       0, 0, 0, 0, 0, 1, 1, 0, 1, 1, 0, 1, 0, 1, 0, 1
   173,    174, 1, 48.60583, 16.95782,        0,       0,       0,       0, 0, 0, 0, 0, 1, 1, 0, 1, 1, 0, 1, 0, 1, 0, 1
   174,    175, 1, 181.3639, 18.08737,        0,       0,       0,       0, 0, 0, 0, 0, 1, 1, 0, 1, 1, 0, 1, 0, 1, 0, 1
   172,    176, 1, 9.464363, 3.599942,        0,       0,       0,       0, 0, 0, 0, 0, 1, 1, 0, 1, 1, 0, 1, 0, 1, 0, 1
   191,    192, 1, 24.06819, 8.397016,        0,       0,       0,       0, 0, 0, 0, 0, 1, 1, 0, 1, 1, 0, 1, 0, 1, 0, 1
   192,    194, 1, 24.62352, 10.98818,        0,       0,       0,       0, 0, 0, 0, 0, 1, 1, 0, 1, 1, 0, 1, 0, 1, 0, 1
   194,    196, 1, 25.75709, 11.49403,        0,       0,       0,       0, 0, 0, 0, 0, 1, 1, 0, 1, 1, 0, 1, 0, 1, 0, 1
   196,    198, 1, 21.43466, 9.565162,        0,       0,       0,       0, 0, 0, 0, 0, 1, 1, 0, 1, 1, 0, 1, 0, 1, 0, 1
   198,    199, 1, 30.21119, 13.48167,        0,       0,       0,       0, 0, 0, 0, 0, 1, 1, 0, 1, 1, 0, 1, 0, 1, 0, 1
   199,    202, 1, 30.40012, 13.56597,        0,       0,       0,       0, 0, 0, 0, 0, 1, 1, 0, 1, 1, 0, 1, 0, 1, 0, 1
   202,    203, 1, 0.298127, 0.113398,        0,       0,       0,       0, 0, 0, 0, 0, 1, 1, 0, 1, 1, 0, 1, 0, 1, 0, 1
   202,    205, 1, 116.2688, 11.59546,        0,       0,       0,       0, 0, 0, 0, 0, 1, 1, 0, 1, 1, 0, 1, 0, 1, 0, 1
   202,    204, 1, 1006.825, 100.4104,        0,       0,       0,       0, 0, 0, 0, 0, 1, 1, 0, 1, 1, 0, 1, 0, 1, 0, 1
   199,    201, 1, 151.3729, 15.09638,        0,       0,       0,       0, 0, 0, 0, 0, 1, 1, 0, 1, 1, 0, 1, 0, 1, 0, 1
   199,    200, 1, 789.9707, 78.78356,        0,       0,       0,       0, 0, 0, 0, 0, 1, 1, 0, 1, 1, 0, 1, 0, 1, 0, 1
   196,    197, 1, 81.42256,  8.12025,        0,       0,       0,       0, 0, 0, 0, 0, 1, 1, 0, 1, 1, 0, 1, 0, 1, 0, 1
   194,    195, 1, 450.7458, 44.95276,        0,       0,       0,       0, 0, 0, 0, 0, 1, 1, 0, 1, 1, 0, 1, 0, 1, 0, 1
   192,    193, 1, 347.0449, 34.61069,        0,       0,       0,       0, 0, 0, 0, 0, 1, 1, 0, 1, 1, 0, 1, 0, 1, 0, 1
   191,    206, 1, 9.464363, 3.599942,        0,       0,       0,       0, 0, 0, 0, 0, 1, 1, 0, 1, 1, 0, 1, 0, 1, 0, 1
...
0 / END OF BRANCH DATA, BEGIN TRANSFORMER DATA
     1,      2, 0, 1, 1, 1, 1, 0, 0, 2, '            ', 1, 1, 1, 0, 1, 0, 1, 0, 1, '            '
0.0004, 0.0069, 100
    1, 0,     0,       0,       0,       0, 0, 0, 1.1, 0.9, 1.1, 0.9, 33, 0, 0, 0, 0
    1, 0
    23,     32, 0, 1, 1, 1, 1, 0, 0, 2, '            ', 1, 1, 1, 0, 1, 0, 1, 0, 1, '            '
0.2597, 38, 100
    1, 0,     0,       0,       0,       0, 0, 0, 1.1, 0.9, 1.1, 0.9, 33, 0, 0, 0, 0
    1, 0
    24,     85, 0, 1, 1, 1, 1, 0, 0, 2, '            ', 1, 1, 1, 0, 1, 0, 1, 0, 1, '            '
0.2597, 38, 100
    1, 0,     0,       0,       0,       0, 0, 0, 1.1, 0.9, 1.1, 0.9, 33, 0, 0, 0, 0
    1, 0
    25,    138, 0, 1, 1, 1, 1, 0, 0, 2, '            ', 1, 1, 1, 0, 1, 0, 1, 0, 1, '            '
0.2597, 38, 100
...